# put your comments here
%pal nprocs 6 end
! PBE0 def2-tzvp SP DEFGRID3 NOTRAH CHELPG D3BJ
%scf MaxIter 800 end
%output
Print [P_Hirshfeld] 1
end
%MaxCore 1000.0
* xyz 0 1
 C     -3.424960000     -0.862820000      1.480441000
 N     -3.424960000      0.010086000      2.512989000
 H     -3.424960000      0.977886000      2.448819000
 C     -3.424960000     -0.733223000      3.674316000
 C     -3.424960000     -0.440378000      5.039604000
 N     -3.424960000     -1.450192000      5.905656000
 C     -3.424960000     -2.704446000      5.491409000
 N     -3.424960000     -3.028055000      4.217397000
 C     -3.424960000     -2.079661000      3.274940000
 N     -3.424960000     -2.087387000      1.928646000
 N     -3.424960000      0.872468000      5.482440000
 H     -3.424960000     -0.586194000      0.436481000
 H     -3.424960000     -3.494431000      6.227851000
 H     -3.424960000      1.600480000      4.841425000
 H     -3.424960000      1.063566000      6.433414000
*



